# 5-text_indentation.txt

================================
How to Use 5-text_indentation.py
================================

This modules purpose is to write a function that prints a text with 2 new lines after each of these characters: ., ? and :. Using the `text_indentation(text)` function.

How to use:
=====

If the characters '.', '?', and ':' are encountered, the text is printed with two new lines following the character.

::

    >>> text_indentation = __import__('5-text_indentation').text_indentation
    >>> text_indentation("Hello?")
    Hello?
    <BLANKLINE>

No spaces are printed at the beginning of a line.

::

    >>> text_indentation("   Hi there.")
    Hi there.
    <BLANKLINE>

::

    >>> text_indentation("          ")

No spaces are printed at the end of printed line either.

::

    >>> text_indentation("Hello.   ")
    Hello.
    <BLANKLINE>

::

    >>> text_indentation("    Woah now.    This is messy.   ")
    Woah now.
    <BLANKLINE>
    This is messy.
    <BLANKLINE>

Text not ending with the stated characters is not ended with a new line.

::

    >>> text_indentation("No ending period, what bad grammar")
    No ending period, what bad grammar

New lines within a string are printed as normal.

::

    >>> text_indentation("Let's print a new-line! Here goes:\nPrinted.")
    Let's print a new-line! Here goes:
    <BLANKLINE>
    <BLANKLINE>
    Printed.
    <BLANKLINE>

::

    >>> text_indentation("\n\n\n We just printed three new lines.")
    <BLANKLINE>
    <BLANKLINE>
    <BLANKLINE>
    We just printed three new lines.
    <BLANKLINE>

::
    >>> text_indentation("A sneaky \n new line.")
    A sneaky 
    new line.
    <BLANKLINE>

Invalid Text
============

A TypeError is encountered if the parameter is not a string.

::

    >>> text_indentation(7)
    Traceback (most recent call last):
    TypeError: text must be a string

::

    >>> text_indentation({"one": 1, "two": 2})
    Traceback (most recent call last):
    TypeError: text must be a string

::

    >>> text_indentation(None)
    Traceback (most recent call last):
    TypeError: text must be a string
